#
#This full-field turbulence file was generated by TurbSim (v1.06.00, 21-Sep-2012) on 29-Jul-2016 at 10:59:50.
#
# | u-comp |  Y  x  Z  | Grid Resolution (Y x Z) | Time-step | Hub Elev | Mean U |
#             5     5      7.500      7.500          0.050      37.00      7.35
#
# Z Coordinates (m):
#  -15.000  -7.500   0.000   7.500  15.000
#
# Y Coordinates (m):
#  -15.000  -7.500   0.000   7.500  15.000
#
    0.000   8.083
    8.109   9.712   9.373   9.416   9.928
    8.885   9.500   9.636   9.691   9.537
    6.876   7.697   8.083   8.017   7.063
    7.238   7.616   7.961   6.921   6.834
    7.008   5.983   7.783   7.777   7.807

    0.050   8.243
    8.143   9.854   9.498   9.754   9.830
    8.694   9.654   9.401   9.570   9.756
    6.753   7.589   8.243   7.795   7.146
    7.389   7.894   8.099   7.068   6.856
    7.131   6.046   7.956   7.932   7.705

    0.100   8.343
    7.926   9.547   9.193   9.581   9.522
    8.604   9.582   9.551   9.657   9.732
    6.843   7.477   8.343   7.736   7.156
    7.404   7.711   8.136   7.113   6.619
    6.863   6.008   8.136   8.197   7.446

    0.150   7.941
    7.599   9.576   8.894   9.675   9.740
    8.826   9.503   9.488   9.539   9.351
    6.682   7.434   7.941   7.659   7.478
    7.288   7.288   8.391   7.052   6.444
    6.513   5.911   7.607   8.246   7.527

    0.200   7.612
    7.855   9.980   9.024   9.956   9.676
    8.606   9.275   9.442   9.652   9.241
    6.892   7.693   7.612   7.679   7.475
    7.534   7.146   8.558   7.051   6.523
    6.922   5.881   7.414   8.300   7.507

    0.250   7.805
    8.125   9.989   9.113   9.685   9.290
    8.416   8.941   9.003   9.531   9.296
    6.793   7.491   7.805   7.744   7.297
    7.840   7.156   8.298   6.904   6.687
    7.477   5.822   7.427   8.247   7.626

    0.300   8.418
    7.730   9.534   9.298   9.395   9.172
    8.393   9.331   8.513   9.377   9.058
    6.991   7.718   8.418   7.707   7.378
    7.206   7.401   8.260   6.795   6.652
    7.411   6.121   7.374   8.214   7.688

    0.350   8.396
    7.989   9.637   9.400   9.837   9.017
    8.689   9.526   8.459   9.743   8.881
    7.132   7.767   8.396   7.556   7.172
    7.283   7.684   8.114   6.802   6.825
    7.170   6.082   7.132   8.038   7.231

    0.400   8.342
    7.935   9.576   9.317   9.982   9.079
    8.831   9.259   8.533   9.765   8.614
    6.993   7.363   8.342   7.258   6.931
    7.519   7.676   8.005   6.843   6.723
    7.180   5.913   7.034   8.126   6.794

    0.450   8.511
    7.496   8.970   9.262   9.619   8.982
    8.891   9.150   8.278   9.664   8.496
    7.504   7.375   8.511   7.249   6.612
    7.679   7.447   8.009   6.550   6.683
    7.435   5.809   7.020   8.254   6.701

    0.500   8.353
    7.581   8.949   9.586   9.778   8.899
    8.732   9.010   8.349   9.595   8.742
    7.303   7.063   8.353   7.336   7.190
    7.609   7.411   7.914   6.756   6.584
    6.874   6.064   6.876   8.099   6.875

    0.550   7.977
    7.773   8.721   9.854   9.617   9.128
    8.736   9.125   8.714   9.287   8.695
    7.084   7.286   7.977   7.363   7.168
    8.136   7.105   7.772   6.526   6.714
    6.818   6.394   6.868   7.764   6.846

    0.600   8.017
    7.580   8.518   9.886   9.812   8.800
    8.697   8.994   9.127   9.607   8.846
    6.885   7.521   8.017   7.371   7.123
    7.838   7.128   7.928   6.561   6.802
    6.531   6.589   6.546   7.923   6.805

    0.650   8.025
    7.621   8.684   9.925   9.406   8.617
    9.188   8.519   8.954   9.665   8.834
    6.645   7.715   8.025   7.551   7.302
    7.363   7.253   7.399   6.707   6.795
    6.522   6.400   6.885   7.945   6.913

    0.700   7.735
    7.654   8.647   9.857   9.554   8.901
    9.666   8.829   8.821  10.302   8.495
    6.786   7.716   7.735   7.362   7.325
    6.909   7.178   7.473   6.652   6.822
    6.745   6.246   6.889   7.629   7.237

    0.750   7.148
    8.019   8.608   9.862   9.840   9.289
    9.702   9.001   8.959  10.302   8.382
    6.803   7.990   7.148   7.585   7.230
    7.022   6.726   7.478   6.773   7.007
    6.233   6.537   7.153   7.539   7.422

    0.800   7.334
    8.222   8.658   9.646   9.672   9.219
    9.530   8.895   8.740  10.248   8.241
    6.750   8.052   7.334   7.837   7.075
    6.879   6.866   7.910   6.672   6.944
    6.477   5.963   7.049   7.538   7.151

    0.850   7.498
    8.210   8.436   9.224   9.563   9.330
    9.331   9.264   8.534  10.536   8.101
    6.970   7.916   7.498   7.900   6.787
    7.211   7.004   7.862   6.609   6.885
    6.515   5.400   7.078   7.848   7.207

    0.900   7.398
    8.140   8.649   9.566   8.889   9.600
    9.072   9.386   8.610  10.572   8.348
    7.235   7.938   7.398   7.407   6.606
    7.202   7.197   7.928   6.495   7.041
    6.318   5.502   6.695   7.880   7.183

    0.950   7.168
    8.271   9.290   9.366   8.577   9.738
    9.068   9.083   8.434  10.471   8.191
    7.172   8.100   7.168   7.427   6.717
    7.316   7.265   8.355   6.357   7.059
    5.979   5.778   6.802   7.863   7.176

    1.000   7.160
    8.253   9.155   9.553   8.518   9.853
    9.619   9.150   8.438  10.557   8.238
    6.950   8.329   7.160   7.499   6.386
    7.596   7.036   8.271   6.375   6.932
    5.676   5.646   6.866   8.160   7.031

    1.050   7.063
    8.352   9.037   9.339   8.482   9.957
    9.636   9.183   8.304  10.332   8.396
    7.144   8.272   7.063   7.451   6.488
    7.050   6.965   8.292   6.535   6.719
    5.649   5.588   6.752   7.850   6.765

    1.100   7.008
    8.108   9.376   9.283   8.458   9.778
    9.495   9.172   8.085  10.697   8.145
    6.918   8.120   7.008   7.267   6.540
    6.877   7.337   7.926   6.159   6.486
    5.419   5.603   6.919   7.685   6.871

    1.150   6.877
    8.217   9.061   9.350   8.839   9.779
    9.239   9.588   8.387  10.621   8.254
    6.875   8.225   6.877   7.050   6.810
    7.269   6.967   7.974   6.376   6.083
    5.244   5.866   6.802   7.826   6.607

    1.200   6.834
    8.295   8.920   9.136   8.842   9.491
    9.215   9.192   8.433  10.189   8.275
    6.708   8.145   6.834   6.753   6.546
    7.146   6.834   8.033   6.327   6.135
    5.150   6.058   7.108   7.798   7.011

    1.250   6.674
    8.119   9.118   9.241   8.767   9.827
    9.636   8.882   8.448  10.293   8.240
    6.748   7.679   6.674   6.666   6.438
    6.865   6.824   8.181   6.575   6.101
    5.586   5.717   6.902   7.564   7.210

    1.300   6.987
    8.349   8.992   9.651   8.938   9.101
    9.079   8.891   8.372   9.977   8.017
    6.534   8.128   6.987   7.074   6.657
    6.969   6.691   8.122   7.007   6.044
    6.098   5.396   7.317   7.463   7.273

    1.350   6.894
    8.327   9.061   9.735   8.847   8.867
    9.144   8.724   8.747   9.792   8.225
    6.710   8.192   6.894   7.117   6.425
    7.354   6.947   7.851   6.778   5.759
    6.136   5.656   7.354   7.527   7.376

    1.400   6.891
    8.563   9.131   9.432   8.597   8.974
    9.314   8.693   8.646   9.398   8.481
    6.614   8.068   6.891   7.130   6.477
    7.051   6.923   7.704   6.800   5.856
    6.053   5.602   7.240   7.553   7.656

    1.450   6.754
    8.873   9.103   9.421   8.578   9.168
    9.210   8.643   8.066   9.625   8.504
    6.379   7.869   6.754   7.045   6.809
    6.927   6.434   7.448   6.368   5.856
    6.593   5.491   7.101   7.336   7.612

    1.500   6.895
    8.863   9.432   9.069   8.338   9.246
    8.990   8.602   7.942   9.502   8.659
    6.524   8.024   6.895   7.292   6.752
    7.031   6.405   7.370   6.216   5.641
    6.545   5.610   7.030   7.156   7.712

    1.550   7.023
    8.814   9.281   9.008   8.498   9.632
    9.333   8.875   8.271   9.341   8.457
    6.821   8.092   7.023   7.344   6.428
    6.858   6.250   7.345   6.089   5.653
    6.194   5.644   6.825   7.535   7.980

    1.600   6.514
    8.596   9.106   9.013   8.558   9.421
    8.942   8.767   8.181   9.154   8.642
    6.667   7.870   6.514   7.448   6.365
    6.593   6.470   7.311   6.135   5.974
    6.093   5.380   6.765   7.583   8.173

    1.650   6.674
    8.375   9.381   9.199   8.806   9.316
    9.035   8.944   8.035   9.533   8.747
    6.744   7.867   6.674   7.536   6.283
    6.771   6.281   7.482   6.056   6.168
    5.653   5.605   6.550   7.385   8.134

    1.700   6.342
    8.322   8.796   9.103   8.780   9.233
    9.099   8.811   8.301   9.322   8.625
    6.892   8.076   6.342   7.378   6.649
    6.742   6.582   7.710   6.257   6.404
    5.271   6.104   6.664   7.548   8.262

    1.750   6.356
    8.574   8.481   9.187   8.659   8.846
    9.259   8.708   8.410   9.037   8.846
    6.942   7.874   6.356   7.363   6.560
    6.793   6.795   7.522   6.320   6.306
    5.018   6.049   6.917   7.353   8.265

    1.800   6.588
    8.853   8.692   9.296   8.477   8.688
    9.276   9.061   8.300   9.080   8.817
    6.764   7.845   6.588   7.255   6.463
    6.474   6.557   7.272   6.537   6.568
    5.065   5.747   6.958   7.497   8.583

    1.850   6.468
    8.573   8.695   8.985   8.380   8.454
    9.501   8.723   8.065   9.268   8.792
    6.751   8.326   6.468   7.420   6.209
    6.701   6.689   7.220   6.305   6.262
    5.256   5.699   7.118   7.577   8.324

    1.900   6.578
    8.808   9.085   9.166   8.349   8.576
    9.541   8.879   7.698   9.137   8.830
    6.881   8.244   6.578   7.362   6.268
    6.730   6.867   6.992   6.156   6.378
    4.814   5.807   7.392   7.566   8.566

    1.950   6.574
    8.882   9.342   9.086   7.998   8.660
    9.268   8.720   7.849   9.017   8.988
    7.307   7.931   6.574   7.576   5.899
    6.650   6.721   7.140   6.517   6.190
    4.990   6.142   7.386   7.429   8.274

    2.000   6.824
    8.626   8.957   8.834   8.389   8.780
    9.802   8.528   8.216   9.381   8.825
    7.123   7.451   6.824   7.505   5.970
    6.653   6.371   7.393   6.495   6.227
    5.450   5.885   7.620   7.558   8.376

    2.050   6.846
    8.762   8.918   8.510   8.561   8.561
    9.780   8.002   7.980   9.452   9.034
    7.222   7.425   6.846   7.060   6.710
    6.622   6.044   7.427   6.544   6.371
    5.396   5.626   7.462   7.371   8.524

    2.100   6.544
    8.648   9.048   8.612   8.370   8.563
    9.528   8.093   7.511   9.231   9.209
    6.993   7.540   6.544   7.260   6.646
    7.152   6.261   7.330   6.419   6.496
    5.660   5.669   7.095   7.603   8.403

    2.150   6.423
    8.635   8.894   8.810   8.480   8.431
    9.437   8.380   7.618   9.222   9.313
    7.151   7.461   6.423   7.444   6.489
    7.020   6.303   7.199   6.371   6.622
    5.735   5.407   7.045   7.468   8.421

    2.200   6.381
    8.876   8.797   8.741   8.010   8.455
    9.385   8.580   7.454   9.497   9.121
    6.647   7.268   6.381   7.339   6.458
    6.870   5.949   7.151   6.161   6.842
    5.235   5.908   7.024   7.307   8.431

    2.250   6.327
    8.772   9.248   8.707   8.146   8.293
    9.501   8.603   7.370   9.438   9.071
    6.897   7.264   6.327   7.215   6.489
    6.896   5.876   6.967   6.107   7.160
    5.233   5.695   7.211   7.458   8.498

    2.300   6.613
    8.709   9.016   8.801   8.239   8.429
    9.196   8.549   7.450   9.225   9.016
    6.694   7.340   6.613   7.664   6.515
    6.712   6.162   7.006   6.313   6.948
    5.296   5.807   7.185   7.486   8.357

    2.350   7.092
    8.315   8.556   8.816   8.391   8.370
    9.337   8.224   7.812   9.294   8.876
    6.841   7.583   7.092   7.687   6.547
    6.959   5.806   7.301   6.155   6.976
    5.108   5.801   7.059   7.473   8.209

    2.400   7.075
    8.509   8.670   8.478   8.412   8.423
    9.258   8.517   7.876   9.418   9.007
    6.948   7.621   7.075   7.516   6.431
    6.608   5.684   7.243   6.329   6.919
    5.097   5.904   6.950   7.747   8.137

    2.450   7.022
    8.730   8.866   8.549   8.470   8.519
    8.916   8.543   7.840   9.717   9.057
    6.886   7.568   7.022   7.351   6.716
    6.560   6.055   7.098   6.448   7.182
    5.099   5.592   7.005   7.774   8.092

    2.500   6.888
    8.982   9.196   8.583   8.527   8.390
    8.955   8.618   7.894   9.722   9.007
    6.567   7.517   6.888   6.989   6.740
    6.564   6.511   7.432   6.455   7.408
    5.034   5.628   7.195   7.376   8.162

    2.550   6.695
    8.867   9.322   8.210   8.670   8.788
    8.996   8.613   7.846   9.969   8.954
    6.633   7.525   6.695   6.814   6.850
    6.283   6.737   7.504   6.629   7.325
    5.279   5.749   7.615   7.004   7.854

    2.600   6.631
    9.023   9.260   8.446   8.419   8.742
    8.938   8.476   7.498   9.852   9.118
    6.466   7.729   6.631   6.978   6.906
    6.170   6.569   7.587   6.364   7.540
    5.386   5.779   7.474   6.829   7.427

    2.650   6.751
    9.236   9.283   8.635   8.692   8.862
    8.867   8.574   7.732   9.607   8.851
    6.488   7.291   6.751   7.110   6.839
    5.892   6.504   7.670   6.557   7.636
    5.398   5.352   7.537   7.060   7.281

    2.700   6.980
    9.392   9.284   8.542   8.522   9.000
    9.228   8.315   7.906   9.771   9.042
    6.544   7.277   6.980   7.227   7.023
    6.218   6.385   7.799   6.746   7.717
    5.530   5.573   7.575   7.181   7.294

    2.750   7.287
    9.530   9.332   8.170   8.181   8.884
    9.243   8.353   7.626   9.542   8.862
    6.592   7.273   7.287   7.315   7.030
    6.117   6.225   8.202   7.028   7.392
    5.328   5.432   7.462   7.594   7.418

    2.800   7.533
    9.795   9.424   8.530   7.815   9.048
    9.565   8.479   7.691   9.309   8.611
    6.846   7.148   7.533   7.392   7.254
    6.053   6.423   8.049   6.985   7.052
    5.342   5.169   6.864   7.738   7.182

    2.850   7.453
    9.856   9.469   8.657   7.863   8.916
    9.442   8.628   7.643   9.455   8.702
    6.986   7.282   7.453   6.976   7.391
    6.257   6.552   8.237   6.859   7.134
    5.427   5.286   6.836   7.413   7.093

    2.900   7.627
    9.970   9.358   8.755   8.123   8.962
    9.736   8.657   7.270   9.199   8.760
    7.045   7.619   7.627   6.937   7.468
    6.230   6.234   7.865   6.647   7.006
    5.562   5.129   6.777   7.497   6.968

    2.950   7.659
   10.327   9.801   8.832   8.087   8.913
    9.842   8.443   7.609   8.857   8.871
    7.044   7.564   7.659   6.908   7.325
    6.277   6.161   7.647   6.570   6.448
    5.380   5.276   7.063   7.392   6.943

    3.000   7.769
   10.490   9.980   8.786   8.313   8.973
    9.788   8.590   8.129   9.064   9.150
    6.392   7.353   7.769   7.110   6.883
    6.184   6.261   7.460   6.796   6.249
    5.558   5.462   7.138   7.373   6.863

    3.050   7.751
   10.278   9.638   8.347   8.322   8.574
    9.426   8.389   8.047   8.996   8.988
    6.057   7.560   7.751   7.215   6.968
    6.249   6.308   7.360   6.945   6.646
    5.458   5.539   7.297   7.463   7.045

    3.100   8.056
    9.971   9.975   8.427   8.722   8.827
    9.028   8.503   7.964   9.012   9.265
    5.986   7.698   8.056   7.509   6.865
    6.031   6.351   7.537   6.941   6.988
    5.586   5.456   7.049   7.710   6.465

    3.150   8.008
   10.082  10.307   8.408   9.131   8.838
    9.157   8.863   7.858   8.576   9.525
    6.020   7.490   8.008   7.270   7.033
    5.988   6.321   7.593   6.773   6.515
    5.673   5.678   6.831   7.800   6.595

    3.200   7.855
   10.169  10.313   7.973   9.087   8.607
    9.165   9.256   7.471   8.538   9.569
    6.059   7.676   7.855   7.194   6.925
    6.243   6.339   7.544   6.958   6.575
    5.626   5.275   7.161   7.583   6.950

    3.250   7.775
    9.915  10.315   7.755   8.942   8.720
    9.444   9.232   7.377   8.745   9.434
    5.968   7.846   7.775   7.291   7.140
    6.537   6.502   7.543   6.804   6.489
    5.809   5.208   7.267   7.454   7.027

    3.300   7.719
    9.978  10.003   8.025   8.806   9.119
    8.929   9.110   7.798   8.730   8.786
    6.066   7.919   7.719   6.966   7.189
    6.816   6.474   7.633   7.078   6.365
    5.942   5.410   7.435   7.592   7.005

    3.350   7.764
    9.827  10.159   8.168   9.009   9.277
    8.917   9.070   7.907   8.731   8.581
    6.456   7.824   7.764   7.053   7.178
    7.193   6.445   7.849   7.312   6.683
    5.735   6.046   7.784   7.453   7.111

    3.400   7.819
    9.605  10.119   8.044   9.242   8.988
    9.214   9.209   7.519   8.926   8.728
    6.270   7.619   7.819   7.295   6.833
    7.163   6.494   7.747   7.124   6.722
    5.816   5.932   8.081   7.538   6.516

    3.450   7.722
    9.490  10.018   8.478   8.986   8.614
    9.222   9.329   7.275   8.935   8.341
    6.224   7.712   7.722   7.334   7.059
    7.140   6.266   7.392   7.273   6.771
    5.456   5.632   7.857   7.584   6.258

    3.500   7.447
    9.364   9.865   8.084   8.953   8.574
    9.311   9.608   7.141   9.112   8.255
    6.573   7.739   7.447   7.706   6.614
    7.072   6.128   7.008   7.452   6.639
    5.790   5.921   7.699   7.585   6.356

    3.550   7.597
    9.385   9.325   8.161   8.755   8.346
    9.345   9.249   7.179   9.217   8.522
    6.653   7.776   7.597   8.033   6.612
    6.932   6.207   7.217   7.129   6.200
    5.780   6.453   7.622   7.585   6.386

    3.600   7.545
    9.267   9.220   8.168   8.923   8.447
    9.295   9.008   7.562   9.392   8.454
    6.473   7.415   7.545   7.453   6.658
    6.478   6.338   7.556   7.133   6.337
    5.678   6.499   7.433   7.671   6.167

    3.650   7.538
    9.196   8.895   8.170   8.930   8.630
    9.207   9.127   7.656   9.799   8.433
    6.320   7.458   7.538   7.532   7.076
    6.503   6.716   7.593   7.282   6.224
    5.625   6.254   7.576   7.900   6.100

    3.700   7.396
    8.941   8.887   8.207   8.785   8.559
    9.442   9.149   7.724   9.752   8.723
    6.376   7.730   7.396   7.933   7.605
    6.679   6.322   7.348   7.250   6.337
    5.653   6.412   7.936   7.690   6.150

    3.750   7.468
    8.908   8.958   8.399   8.991   8.512
    9.211   8.823   8.024   9.470   8.930
    6.799   7.349   7.468   8.083   7.492
    6.887   6.619   7.271   7.122   6.199
    5.990   6.212   7.898   7.199   5.785

    3.800   7.180
    8.775   9.072   8.515   8.849   8.949
    9.144   8.826   7.848   9.714   8.888
    6.961   7.285   7.180   7.899   7.487
    7.215   6.422   7.023   7.343   6.470
    6.381   6.416   7.922   7.568   5.895

    3.850   7.116
    8.707   9.317   8.891   9.054   9.063
    9.234   8.878   7.829   9.342   8.953
    7.050   6.927   7.116   7.817   7.410
    7.128   6.421   6.850   7.369   6.462
    6.242   6.011   7.983   7.486   5.905

    3.900   7.143
    8.881   9.365   8.592   9.100   9.146
    9.267   8.668   8.762   9.477   8.667
    7.154   6.953   7.143   7.998   7.540
    7.299   6.693   7.239   7.526   6.193
    6.199   6.025   7.852   7.858   5.718

    3.950   7.107
    8.867   9.666   8.517   8.826   9.238
    9.001   8.827   8.432   9.892   8.332
    7.194   7.348   7.107   8.016   7.934
    7.367   6.866   7.049   7.712   6.079
    6.209   6.434   7.568   7.713   5.275

    4.000   6.935
    9.209   9.362   8.332   8.536   9.111
    9.024   8.885   8.249   9.862   8.553
    6.875   7.150   6.935   8.049   7.802
    7.036   6.573   7.285   7.456   5.890
    6.433   6.609   7.462   8.060   5.543

    4.050   7.226
    9.192   9.166   8.352   8.589   9.463
    8.540   8.608   8.145   9.598   8.438
    6.844   7.094   7.226   8.396   7.869
    7.000   6.675   7.461   7.765   5.799
    6.468   6.320   7.375   8.437   5.827

    4.100   7.488
    9.468   9.228   8.184   8.891   9.501
    8.666   9.240   8.370   9.175   8.080
    6.968   6.602   7.488   8.218   7.596
    7.662   6.617   7.392   7.308   5.879
    6.377   6.524   7.548   8.445   5.713

    4.150   7.379
    9.130   9.173   8.246   9.010   9.442
    8.459   9.018   8.411   8.812   8.267
    7.118   6.869   7.379   8.263   7.600
    7.346   6.423   7.550   7.448   5.793
    6.073   6.266   7.268   8.393   5.564

    4.200   7.883
    9.036   9.022   8.447   8.882   9.254
    8.344   9.228   8.475   9.164   8.500
    7.031   6.837   7.883   8.437   7.648
    7.264   6.862   7.155   7.781   5.527
    6.182   6.128   7.400   8.393   5.728

    4.250   7.771
    8.990   9.199   8.601   9.000   9.064
    8.528   9.246   8.499   9.002   8.215
    6.613   6.864   7.771   8.585   7.370
    7.651   7.071   7.354   7.590   5.469
    6.241   6.129   7.226   8.319   6.049

    4.300   7.582
    9.304   8.877   8.705   8.946   8.840
    8.616   9.023   8.241   9.089   8.190
    7.092   7.053   7.582   8.576   7.217
    7.664   7.391   7.183   7.589   5.704
    6.280   6.168   7.308   8.303   6.031

    4.350   7.846
    9.139   9.163   8.663   9.120   8.721
    8.714   9.189   8.053   9.014   7.968
    7.390   6.964   7.846   8.672   6.998
    7.771   6.926   6.965   7.213   5.805
    5.926   6.591   7.402   8.057   5.907

    4.400   8.120
    8.917   9.456   8.608   8.944   8.860
    8.579   9.231   8.076   8.887   7.962
    7.297   7.193   8.120   7.954   7.098
    8.048   6.894   6.992   7.728   6.061
    5.909   6.351   7.231   7.684   5.842

    4.450   7.904
    9.028   9.595   8.792   9.465   8.713
    8.331   9.537   7.976   9.429   8.092
    7.224   7.236   7.904   8.249   7.517
    8.270   6.972   7.196   8.141   5.971
    6.054   6.312   7.112   7.701   6.061

    4.500   7.764
    8.642   9.424   9.039   9.418   8.579
    8.263   9.467   7.936   9.659   8.259
    7.265   7.209   7.764   8.099   7.735
    8.457   7.045   7.257   8.086   6.052
    6.219   6.450   6.881   7.634   6.207

    4.550   7.913
    9.019   8.969   8.915   9.202   8.036
    8.326   9.578   8.399   9.348   7.930
    6.878   7.360   7.913   8.060   7.579
    8.298   7.375   7.350   7.766   6.222
    5.994   6.564   7.155   7.469   6.369

    4.600   7.619
    8.937   9.196   8.868   9.346   8.178
    8.279   9.099   8.470   9.435   7.647
    6.909   7.463   7.619   7.922   7.717
    8.082   7.461   7.618   8.094   6.234
    6.248   6.108   7.647   7.592   6.716

    4.650   7.510
    8.803   9.016   8.664   9.349   8.258
    8.378   9.516   8.442   9.273   7.577
    7.137   7.266   7.510   7.635   7.774
    8.115   7.257   7.722   8.048   6.729
    5.836   6.116   7.626   7.643   7.027

    4.700   7.398
    8.391   8.792   8.759   9.411   8.439
    8.457   9.749   8.272   8.927   7.661
    7.247   7.168   7.398   7.427   7.965
    8.260   6.922   7.623   7.896   7.019
    6.075   6.695   7.667   7.541   6.909

    4.750   7.333
    8.880   8.722   8.774   9.317   8.506
    8.187   9.756   8.261   9.189   7.679
    7.585   7.713   7.333   7.687   8.174
    7.800   7.041   7.643   8.065   6.892
    6.211   6.350   7.589   7.880   6.692

    4.800   7.138
    9.180   8.866   8.863   9.310   8.412
    8.080   9.400   8.066   9.104   7.908
    7.458   7.781   7.138   7.742   7.805
    8.060   7.086   7.424   8.411   7.048
    6.388   6.530   7.553   7.804   6.717

    4.850   6.878
    9.584   8.759   8.836   9.137   8.088
    8.133   9.482   7.858   9.014   7.992
    7.689   7.630   6.878   7.494   7.654
    8.212   7.067   7.728   8.506   6.890
    6.440   6.620   7.739   7.710   6.832

    4.900   7.117
    9.732   8.732   8.607   9.652   8.102
    8.419   9.673   7.553   9.139   8.010
    7.386   7.996   7.117   7.488   7.451
    8.262   6.887   7.764   8.249   6.688
    6.369   6.596   7.726   7.672   6.715

    4.950   7.110
    9.488   8.773   8.599   9.521   8.228
    8.820   9.635   7.728   8.846   7.971
    7.264   7.972   7.110   7.435   7.300
    8.241   6.608   7.540   8.181   6.496
    6.528   6.620   7.745   7.385   6.808

    5.000   7.127
    9.855   8.830   8.430   9.962   8.287
    8.937   9.779   7.802   9.213   8.066
    7.349   7.811   7.127   7.564   7.107
    8.200   6.955   7.668   7.955   6.674
    6.681   6.666   7.496   7.601   7.014

    5.050   7.178
   10.182   8.870   8.767   9.594   7.930
    8.791  10.365   8.054   9.677   7.922
    7.416   7.681   7.178   7.519   7.132
    8.109   6.830   7.441   7.782   6.692
    7.356   6.847   7.621   7.536   7.257

    5.100   7.147
   10.437   8.583   8.771   9.308   8.257
    9.013  10.610   8.252   9.492   7.891
    7.562   7.921   7.147   7.442   7.029
    8.071   7.019   7.430   7.446   6.724
    7.391   6.741   7.520   7.836   7.427

    5.150   7.267
   10.510   8.803   8.755   9.165   8.274
    8.973  10.597   8.267   9.126   7.804
    7.835   8.169   7.267   7.390   7.064
    8.016   7.358   7.359   7.175   6.450
    7.155   6.473   7.412   7.866   7.237

    5.200   7.220
   10.461   8.905   9.026   9.316   8.264
    8.947  10.489   8.292   8.915   7.805
    7.747   8.444   7.220   7.631   6.925
    8.467   7.504   7.125   6.982   6.449
    7.084   6.541   7.090   7.683   7.264

    5.250   7.302
   10.415   8.873   9.051   9.140   8.221
    9.075  10.335   8.674   8.966   7.660
    7.828   8.357   7.302   7.468   7.197
    8.664   7.352   7.158   7.082   6.902
    6.750   6.215   6.853   7.922   6.986

    5.300   7.553
   10.643   9.167   9.006   9.430   8.181
    9.276  10.340   8.468   9.200   7.970
    8.142   8.563   7.553   7.402   6.971
    8.781   7.145   7.569   7.232   6.820
    6.743   6.166   6.976   7.840   6.731

    5.350   7.394
   10.373   9.532   8.963   9.573   8.382
    8.856  10.218   7.996   8.989   8.084
    8.171   8.579   7.394   7.192   7.163
    8.823   7.229   7.422   7.155   7.338
    6.791   6.208   7.306   7.876   6.949

    5.400   7.411
   10.306   9.558   8.950   9.664   8.241
    8.830  10.351   8.249   9.278   8.176
    8.024   8.440   7.411   7.315   7.656
    8.636   7.528   7.577   6.741   7.139
    6.910   6.162   7.477   7.752   7.372

    5.450   7.698
   10.010   9.421   9.011   9.679   8.243
    8.635  10.594   7.915   9.402   8.070
    7.999   8.548   7.698   7.276   7.729
    8.431   7.588   7.382   6.734   6.933
    6.820   6.588   7.072   7.607   7.065

    5.500   7.529
   10.217   9.438   8.742   9.405   8.353
    8.971  10.667   7.812   9.535   8.088
    8.091   8.308   7.529   7.044   7.356
    8.522   7.568   7.413   6.827   7.145
    6.903   6.742   7.152   7.280   7.149

    5.550   7.685
   10.420   9.580   8.849   9.452   8.549
    9.083  10.408   7.962   9.027   8.034
    8.089   8.245   7.685   7.129   7.471
    8.889   7.720   7.435   6.761   7.038
    6.965   6.439   7.019   7.213   7.463

    5.600   7.925
   10.131   9.465   8.980   9.633   8.500
    9.643  10.011   7.808   9.148   8.170
    8.190   8.350   7.925   7.481   7.350
    8.771   7.727   7.450   6.550   7.124
    6.956   6.515   7.400   7.352   7.598

    5.650   7.630
    9.902   9.700   9.378   9.549   8.342
    9.958   9.974   7.657   9.261   8.209
    8.168   8.740   7.630   6.999   7.734
    8.549   7.586   7.533   6.859   7.082
    6.801   6.385   7.649   7.456   7.415

    5.700   7.610
    9.789   9.902   9.448   9.427   8.068
    9.774   9.599   7.496   9.396   8.318
    7.980   8.782   7.610   6.929   7.698
    8.763   7.741   7.898   6.871   6.751
    7.090   5.807   7.617   7.429   7.417

    5.750   7.733
    9.893   9.873   9.376   9.217   8.564
    9.830   9.595   7.645   9.325   8.649
    8.182   8.605   7.733   6.754   7.526
    9.005   7.115   7.806   6.780   6.402
    7.115   5.836   7.673   7.421   7.138

    5.800   7.513
    9.777  10.173   9.093   9.184   8.801
    9.980   9.563   7.751   9.086   8.814
    7.978   8.413   7.513   6.983   7.492
    8.979   7.015   7.779   6.582   6.159
    7.211   6.242   7.606   7.259   7.019

    5.850   7.746
    9.869  10.004   9.102   9.106   8.632
   10.258   9.494   8.158   8.835   9.024
    8.289   8.386   7.746   7.159   7.654
    8.843   7.287   7.665   6.844   6.184
    7.416   6.414   7.616   7.121   6.774

    5.900   7.514
   10.016   9.763   9.424   9.247   8.592
   10.162   9.234   8.536   8.547   9.085
    8.399   8.406   7.514   7.221   7.684
    8.952   7.604   8.150   6.734   6.251
    7.136   6.506   7.572   6.925   6.791

    5.950   7.308
    9.566   9.987   9.068   9.635   8.706
    9.994   9.322   8.436   8.467   9.055
    8.489   8.540   7.308   6.899   7.509
    9.203   7.576   8.167   6.724   6.159
    7.019   6.611   7.637   6.998   6.826

    6.000   7.325
    9.647   9.886   8.779   9.456   8.564
    9.701   9.284   8.735   8.741   8.812
    8.094   8.404   7.325   6.750   7.543
    9.113   7.467   8.058   7.115   6.215
    6.912   6.749   8.099   7.289   7.126

    6.050   7.203
    9.774   9.656   8.974   9.204   8.530
    9.623   9.675   9.047   8.629   9.036
    8.297   8.319   7.203   7.152   7.426
    8.988   7.069   8.254   6.988   6.062
    6.602   6.829   8.019   7.349   6.909

    6.100   7.354
    9.718  10.015   9.325   9.169   8.434
    9.673   9.559   8.946   8.911   8.843
    8.479   7.915   7.354   7.219   7.196
    8.614   7.059   8.148   7.161   6.092
    6.376   6.634   7.898   7.576   6.609

    6.150   7.355
    9.580   9.733   9.204   9.230   8.776
    9.672   9.396   8.973   8.790   9.090
    8.290   7.689   7.355   7.296   6.845
    8.673   7.113   8.544   7.251   6.363
    6.369   6.962   7.597   7.595   6.669

    6.200   7.552
    9.840   9.713   9.146   9.214   8.741
    9.834   9.480   8.809   8.673   9.082
    8.632   7.498   7.552   7.240   6.801
    9.113   7.336   8.291   7.113   6.068
    6.614   7.194   7.183   7.830   6.865

    6.250   7.766
    9.691   9.576   8.916   9.234   8.970
    9.867   9.452   8.461   8.574   8.870
    8.988   7.722   7.766   7.234   7.161
    9.218   7.449   7.986   6.508   6.180
    6.761   7.269   7.165   7.252   7.296

    6.300   7.454
    9.414   9.752   8.907   9.296   9.036
   10.033   9.510   8.526   8.433   8.691
    9.272   8.195   7.454   7.371   7.264
    9.319   7.558   7.828   6.630   6.091
    6.968   7.119   7.235   7.206   7.257

    6.350   7.451
    9.341   9.655   8.809   9.318   8.714
    9.964   9.450   8.479   8.440   8.676
    9.296   7.904   7.451   7.380   7.045
    9.390   8.144   7.760   6.633   6.282
    7.146   6.964   6.851   7.100   7.418

    6.400   7.543
    9.472   9.669   8.762   9.255   9.108
    9.864   9.400   8.343   8.649   8.465
    9.386   7.886   7.543   7.473   7.157
    9.350   8.153   7.836   6.480   6.191
    6.801   6.955   7.077   7.451   7.444

    6.450   7.631